** This Abaqus input file, created in 2021 by Sedighe Keynia, 
** University of Nebraska-Lincoln (UNL), was used to generate
** the result shown in Fig. 10C of 
** Yanagisawa, et al., insilicoPlants, 2022 
** (https://doi.org/10.1093/insilicoplants/diac004) 
** Please cite this paper if this file is helpful.
** Questions about this model should be directed to
** Professor Joseph Turner, (jaturner@unl.edu)
**
*Heading
** Job name: Job-15_CFG_15 Model name: Model-14
** Generated by: Abaqus/CAE 2019
*Preprint, echo=NO, model=NO, history=NO, contact=NO
**
** PARTS
**
*Part, name=Cotton_1
*Node
      1, 0.00497000013,  0.159030005,           0.
      2, 0.00505249947,  0.154699996,           0.
      3, 0.00800000038,           0.,           0.
      4,           0.,  0.164000005,           0.
      5, 0.00496057374,  0.159030005, 0.000305957714
      6, 0.00493232999,  0.159030005, 0.000610754825
      7, 0.00488537643,  0.159030005, 0.000913235126
      8, 0.00481989095,  0.159030005, 0.00121225114
      9, 0.00473612174,  0.159030005, 0.00150666875
     10, 0.00463438686,  0.159030005, 0.00179537106
     11, 0.00451507233,  0.159030005, 0.00207726285
     12, 0.00437863078,  0.159030005, 0.00235127495
     13, 0.00422557909,  0.159030005, 0.00261636777
     14, 0.00405649887,  0.159030005, 0.00287153595
     15, 0.00387203041,  0.159030005, 0.00311581139
     16, 0.0036728743,  0.159030005, 0.0033482674
     17, 0.0034597856,  0.159030005, 0.00356802228
     18, 0.00323357293,  0.159030005, 0.00377424248
     19, 0.00299509405,  0.159030005, 0.00396614568
     20, 0.00274525397,  0.159030005, 0.00414300384
** ... 42404 like lines cut
*Element, type=S4R
   1,    1,    5,  723,  106
   2,    5,    6,  724,  723
   3,    6,    7,  725,  724
   4,    7,    8,  726,  725
   5,    8,    9,  727,  726
   6,    9,   10,  728,  727
   7,   10,   11,  729,  728
   8,   11,   12,  730,  729
   9,   12,   13,  731,  730
  10,   13,   14,  732,  731
  11,   14,   15,  733,  732
  12,   15,   16,  734,  733
  13,   16,   17,  735,  734
  14,   17,   18,  736,  735
  15,   18,   19,  737,  736
  16,   19,   20,  738,  737
  17,   20,   21,  739,  738
  18,   21,   22,  740,  739
  19,   22,   23,  741,  740
  20,   23,   24,  742,  741
** ... 42326 like lines cut
*Element, type=S3
40597, 42159, 40888, 40887
40598, 41642, 41641, 41678
40599, 41741, 41679, 41707
40600, 41870, 41869, 41897
40601, 42417, 42406, 41755
40602, 42338, 42263, 41729
40603, 41752, 42419, 41717
40604, 41947, 41975, 42218
40605, 41688, 41715, 41689
40606, 40720, 40773, 40721
40607, 41646, 41619, 41645
40608, 41643, 41679, 41680
40609, 40743, 42212, 40744
40610, 41570, 41598, 41571
40611, 40756, 41416, 41417
40612, 40832, 40831, 40866
40613, 40892, 40893, 40875
40614, 40903, 40891, 40918
40615, 42224, 40938, 40939
40616, 40998, 40997, 41026
** ... 32 like lines cut
*Nset, nset=BASE_L_Edge
   1,   2,   3, 106, 107, 108, 109, 110, 111, 112, 113, 114, 115, 318, 319, 320
 321, 322, 323, 324, 325, 326, 327, 328, 329, 330, 331, 332, 333, 334, 335, 336
 337, 338, 339, 340, 341, 342, 343, 344, 345, 346, 347, 348, 349, 350, 351, 352
 353, 354, 355, 356, 357, 358, 359, 360, 361, 362, 363, 364, 365, 366, 367, 368
 369, 370, 371, 372, 373, 374, 375, 376, 377, 378, 379, 380, 381, 382, 383, 384
 385, 386, 387, 388, 389, 390, 391, 392, 393, 394, 395, 396, 397, 398, 399, 400
 401, 402, 403, 404, 405, 406, 407, 408, 409, 410, 411, 412, 413, 414, 415, 416
 417, 418, 419, 420, 421, 422, 423, 424, 425, 426, 427, 428, 429, 430, 431, 432
 433, 434, 435, 436, 437, 438, 439, 440, 441, 442, 443, 444, 445, 446, 447, 448
 449, 450, 451, 452, 453, 454, 455, 456, 457, 458, 459, 460, 461, 462, 463, 464
 465, 466, 467, 468, 469, 470, 471, 472, 473, 474, 475, 476, 477, 478, 479, 480
 481, 482, 483, 484, 485, 486, 487, 488, 489, 490, 491, 492, 493, 494, 495, 496
 497, 498, 499, 500, 501, 502, 503, 504, 505, 506, 507, 508, 509, 510, 511, 512
 513, 514, 515, 516, 517, 518, 519, 520, 521, 522, 523, 524, 525, 526, 527, 528
 529, 530, 531, 532, 533, 534, 535, 536, 537, 538, 539, 540, 541, 542, 543, 544
 545, 546, 547, 548, 549, 550, 551, 552, 553, 554, 555, 556, 557, 558, 559, 560
 561, 562, 563, 564, 565, 566, 567, 568, 569, 570, 571, 572, 573, 574, 575, 576
 577, 578, 579, 580, 581, 582, 583, 584, 585, 586, 587, 588, 589, 590, 591, 592
 593, 594, 595, 596, 597, 598, 599, 600, 601, 602, 603, 604, 605, 606, 607, 608
 609, 610, 611, 612, 613, 614, 615, 616, 617, 618, 619, 620, 621, 622, 623, 624
** ... 5 like lines cut
*Elset, elset=BASE_L_Edge
     1,   102,   103,   204,   205,   306,   307,   408,   409,   510,   511,   612,   613,   714,   715,   816
   817,   918,   919,  1020,  1021,  1122,  1123,  1224,  1225,  1326,  1327,  1428,  1429,  1530,  1531,  1632
  1633,  1734,  1735,  1836,  1837,  1938,  1939,  2040,  2041,  2142,  2143,  2244,  2245,  2346,  2347,  2448
  2449,  2550,  2551,  2652,  2653,  2754,  2755,  2856,  2857,  2958,  2959,  3060,  3061,  3162,  3163,  3264
  3265,  3366,  3367,  3468,  3469,  3570,  3571,  3672,  3673,  3774,  3775,  3876,  3877,  3978,  3979,  4080
  4081,  4182,  4183,  4284,  4285,  4386,  4387,  4488,  4489,  4590,  4591,  4692,  4693,  4794,  4795,  4896
  4897,  4998,  4999,  5100,  5101,  5202,  5203,  5304,  5305,  5406,  5407,  5508,  5509,  5610,  5611,  5712
  5713,  5814,  5815,  5916,  5917,  6018,  6019,  6120,  6121,  6222,  6223,  6324,  6325,  6426,  6427,  6528
  6529,  6630,  6631,  6732,  6733,  6834,  6835,  6936,  6937,  7038,  7039,  7140,  7141,  7242,  7243,  7344
  7345,  7446,  7447,  7548,  7549,  7650,  7651,  7752,  7753,  7854,  7855,  7956,  7957,  8058,  8059,  8160
  8161,  8262,  8263,  8364,  8365,  8466,  8467,  8568,  8569,  8670,  8671,  8772,  8773,  8874,  8875,  8976
  8977,  9078,  9079,  9180,  9181,  9282,  9283,  9384,  9385,  9486,  9487,  9588,  9589,  9690,  9691,  9792
  9793,  9894,  9895,  9996,  9997, 10098, 10099, 10200, 10201, 10302, 10303, 10404, 10405, 10506, 10507, 10608
 10609, 10710, 10711, 10812, 10813, 10914, 10915, 11016, 11017, 11118, 11119, 11220, 11221, 11322, 11323, 11424
 11425, 11526, 11527, 11628, 11629, 11730, 11731, 11832, 11833, 11934, 11935, 12036, 12037, 12138, 12139, 12240
 12241, 12342, 12343, 12444, 12445, 12546, 12547, 12648, 12649, 12750, 12751, 12852, 12853, 12954, 12955, 13056
 13057, 13158, 13159, 13260, 13261, 13362, 13363, 13464, 13465, 13566, 13567, 13668, 13669, 13770, 13771, 13872
 13873, 13974, 13975, 14076, 14077, 14178, 14179, 14280, 14281, 14382, 14383, 14484, 14485, 14586, 14587, 14688
 14689, 14790, 14791, 14892, 14893, 14994, 14995, 15096, 15097, 15198, 15199, 15300, 15301, 15402, 15403, 15504
 15505, 15606, 15607, 15708, 15709, 15810, 15811, 15912, 15913, 16014, 16015, 16116, 16117, 16218, 16219, 16320
** ... 30 like lines cut
*Nset, nset=Base
   3, 217, 218, 219, 220, 221, 222, 223, 224, 225, 226, 227, 228, 229, 230, 231
 232, 233, 234, 235, 236, 237, 238, 239, 240, 241, 242, 243, 244, 245, 246, 247
 248, 249, 250, 251, 252, 253, 254, 255, 256, 257, 258, 259, 260, 261, 262, 263
 264, 265, 266, 267, 268, 269, 270, 271, 272, 273, 274, 275, 276, 277, 278, 279
 280, 281, 282, 283, 284, 285, 286, 287, 288, 289, 290, 291, 292, 293, 294, 295
 296, 297, 298, 299, 300, 301, 302, 303, 304, 305, 306, 307, 308, 309, 310, 311
 312, 313, 314, 315, 316, 317
*Elset, elset=Base, generate
 1123,  1224,     1
*Nset, nset=Base_M_Edge
   1,   2,   3, 106, 107, 108, 109, 110, 111, 112, 113, 114, 115, 318, 319, 320
 321, 322, 323, 324, 325, 326, 327, 328, 329, 330, 331, 332, 333, 334, 335, 336
 337, 338, 339, 340, 341, 342, 343, 344, 345, 346, 347, 348, 349, 350, 351, 352
 353, 354, 355, 356, 357, 358, 359, 360, 361, 362, 363, 364, 365, 366, 367, 368
 369, 370, 371, 372, 373, 374, 375, 376, 377, 378, 379, 380, 381, 382, 383, 384
 385, 386, 387, 388, 389, 390, 391, 392, 393, 394, 395, 396, 397, 398, 399, 400
 401, 402, 403, 404, 405, 406, 407, 408, 409, 410, 411, 412, 413, 414, 415, 416
 417, 418, 419, 420, 421, 422, 423, 424, 425, 426, 427, 428, 429, 430, 431, 432
 433, 434, 435, 436, 437, 438, 439, 440, 441, 442, 443, 444, 445, 446, 447, 448
 449, 450, 451, 452, 453, 454, 455, 456, 457, 458, 459, 460, 461, 462, 463, 464
 465, 466, 467, 468, 469, 470, 471, 472, 473, 474, 475, 476, 477, 478, 479, 480
 481, 482, 483, 484, 485, 486, 487, 488, 489, 490, 491, 492, 493, 494, 495, 496
 497, 498, 499, 500, 501, 502, 503, 504, 505, 506, 507, 508, 509, 510, 511, 512
 513, 514, 515, 516, 517, 518, 519, 520, 521, 522, 523, 524, 525, 526, 527, 528
 529, 530, 531, 532, 533, 534, 535, 536, 537, 538, 539, 540, 541, 542, 543, 544
 545, 546, 547, 548, 549, 550, 551, 552, 553, 554, 555, 556, 557, 558, 559, 560
 561, 562, 563, 564, 565, 566, 567, 568, 569, 570, 571, 572, 573, 574, 575, 576
 577, 578, 579, 580, 581, 582, 583, 584, 585, 586, 587, 588, 589, 590, 591, 592
 593, 594, 595, 596, 597, 598, 599, 600, 601, 602, 603, 604, 605, 606, 607, 608
 609, 610, 611, 612, 613, 614, 615, 616, 617, 618, 619, 620, 621, 622, 623, 624
** ... 5 like lines cut
*Elset, elset=Base_M_Edge
     1,   102,   103,   204,   205,   306,   307,   408,   409,   510,   511,   612,   613,   714,   715,   816
   817,   918,   919,  1020,  1021,  1122,  1123,  1224,  1225,  1326,  1327,  1428,  1429,  1530,  1531,  1632
  1633,  1734,  1735,  1836,  1837,  1938,  1939,  2040,  2041,  2142,  2143,  2244,  2245,  2346,  2347,  2448
  2449,  2550,  2551,  2652,  2653,  2754,  2755,  2856,  2857,  2958,  2959,  3060,  3061,  3162,  3163,  3264
  3265,  3366,  3367,  3468,  3469,  3570,  3571,  3672,  3673,  3774,  3775,  3876,  3877,  3978,  3979,  4080
  4081,  4182,  4183,  4284,  4285,  4386,  4387,  4488,  4489,  4590,  4591,  4692,  4693,  4794,  4795,  4896
  4897,  4998,  4999,  5100,  5101,  5202,  5203,  5304,  5305,  5406,  5407,  5508,  5509,  5610,  5611,  5712
  5713,  5814,  5815,  5916,  5917,  6018,  6019,  6120,  6121,  6222,  6223,  6324,  6325,  6426,  6427,  6528
  6529,  6630,  6631,  6732,  6733,  6834,  6835,  6936,  6937,  7038,  7039,  7140,  7141,  7242,  7243,  7344
  7345,  7446,  7447,  7548,  7549,  7650,  7651,  7752,  7753,  7854,  7855,  7956,  7957,  8058,  8059,  8160
  8161,  8262,  8263,  8364,  8365,  8466,  8467,  8568,  8569,  8670,  8671,  8772,  8773,  8874,  8875,  8976
  8977,  9078,  9079,  9180,  9181,  9282,  9283,  9384,  9385,  9486,  9487,  9588,  9589,  9690,  9691,  9792
  9793,  9894,  9895,  9996,  9997, 10098, 10099, 10200, 10201, 10302, 10303, 10404, 10405, 10506, 10507, 10608
 10609, 10710, 10711, 10812, 10813, 10914, 10915, 11016, 11017, 11118, 11119, 11220, 11221, 11322, 11323, 11424
 11425, 11526, 11527, 11628, 11629, 11730, 11731, 11832, 11833, 11934, 11935, 12036, 12037, 12138, 12139, 12240
 12241, 12342, 12343, 12444, 12445, 12546, 12547, 12648, 12649, 12750, 12751, 12852, 12853, 12954, 12955, 13056
 13057, 13158, 13159, 13260, 13261, 13362, 13363, 13464, 13465, 13566, 13567, 13668, 13669, 13770, 13771, 13872
 13873, 13974, 13975, 14076, 14077, 14178, 14179, 14280, 14281, 14382, 14383, 14484, 14485, 14586, 14587, 14688
 14689, 14790, 14791, 14892, 14893, 14994, 14995, 15096, 15097, 15198, 15199, 15300, 15301, 15402, 15403, 15504
 15505, 15606, 15607, 15708, 15709, 15810, 15811, 15912, 15913, 16014, 16015, 16116, 16117, 16218, 16219, 16320
** ... 30 like lines cut
*Nset, nset=Base_edge
   1,   2,   3, 106, 107, 108, 109, 110, 111, 112, 113, 114, 115, 318, 319, 320
 321, 322, 323, 324, 325, 326, 327, 328, 329, 330, 331, 332, 333, 334, 335, 336
 337, 338, 339, 340, 341, 342, 343, 344, 345, 346, 347, 348, 349, 350, 351, 352
 353, 354, 355, 356, 357, 358, 359, 360, 361, 362, 363, 364, 365, 366, 367, 368
 369, 370, 371, 372, 373, 374, 375, 376, 377, 378, 379, 380, 381, 382, 383, 384
 385, 386, 387, 388, 389, 390, 391, 392, 393, 394, 395, 396, 397, 398, 399, 400
 401, 402, 403, 404, 405, 406, 407, 408, 409, 410, 411, 412, 413, 414, 415, 416
 417, 418, 419, 420, 421, 422, 423, 424, 425, 426, 427, 428, 429, 430, 431, 432
 433, 434, 435, 436, 437, 438, 439, 440, 441, 442, 443, 444, 445, 446, 447, 448
 449, 450, 451, 452, 453, 454, 455, 456, 457, 458, 459, 460, 461, 462, 463, 464
 465, 466, 467, 468, 469, 470, 471, 472, 473, 474, 475, 476, 477, 478, 479, 480
 481, 482, 483, 484, 485, 486, 487, 488, 489, 490, 491, 492, 493, 494, 495, 496
 497, 498, 499, 500, 501, 502, 503, 504, 505, 506, 507, 508, 509, 510, 511, 512
 513, 514, 515, 516, 517, 518, 519, 520, 521, 522, 523, 524, 525, 526, 527, 528
 529, 530, 531, 532, 533, 534, 535, 536, 537, 538, 539, 540, 541, 542, 543, 544
 545, 546, 547, 548, 549, 550, 551, 552, 553, 554, 555, 556, 557, 558, 559, 560
 561, 562, 563, 564, 565, 566, 567, 568, 569, 570, 571, 572, 573, 574, 575, 576
 577, 578, 579, 580, 581, 582, 583, 584, 585, 586, 587, 588, 589, 590, 591, 592
 593, 594, 595, 596, 597, 598, 599, 600, 601, 602, 603, 604, 605, 606, 607, 608
 609, 610, 611, 612, 613, 614, 615, 616, 617, 618, 619, 620, 621, 622, 623, 624
** ... 5 like lines cut
*Elset, elset=Base_edge
     1,   102,   103,   204,   205,   306,   307,   408,   409,   510,   511,   612,   613,   714,   715,   816
   817,   918,   919,  1020,  1021,  1122,  1123,  1224,  1225,  1326,  1327,  1428,  1429,  1530,  1531,  1632
  1633,  1734,  1735,  1836,  1837,  1938,  1939,  2040,  2041,  2142,  2143,  2244,  2245,  2346,  2347,  2448
  2449,  2550,  2551,  2652,  2653,  2754,  2755,  2856,  2857,  2958,  2959,  3060,  3061,  3162,  3163,  3264
  3265,  3366,  3367,  3468,  3469,  3570,  3571,  3672,  3673,  3774,  3775,  3876,  3877,  3978,  3979,  4080
  4081,  4182,  4183,  4284,  4285,  4386,  4387,  4488,  4489,  4590,  4591,  4692,  4693,  4794,  4795,  4896
  4897,  4998,  4999,  5100,  5101,  5202,  5203,  5304,  5305,  5406,  5407,  5508,  5509,  5610,  5611,  5712
  5713,  5814,  5815,  5916,  5917,  6018,  6019,  6120,  6121,  6222,  6223,  6324,  6325,  6426,  6427,  6528
  6529,  6630,  6631,  6732,  6733,  6834,  6835,  6936,  6937,  7038,  7039,  7140,  7141,  7242,  7243,  7344
  7345,  7446,  7447,  7548,  7549,  7650,  7651,  7752,  7753,  7854,  7855,  7956,  7957,  8058,  8059,  8160
  8161,  8262,  8263,  8364,  8365,  8466,  8467,  8568,  8569,  8670,  8671,  8772,  8773,  8874,  8875,  8976
  8977,  9078,  9079,  9180,  9181,  9282,  9283,  9384,  9385,  9486,  9487,  9588,  9589,  9690,  9691,  9792
  9793,  9894,  9895,  9996,  9997, 10098, 10099, 10200, 10201, 10302, 10303, 10404, 10405, 10506, 10507, 10608
 10609, 10710, 10711, 10812, 10813, 10914, 10915, 11016, 11017, 11118, 11119, 11220, 11221, 11322, 11323, 11424
 11425, 11526, 11527, 11628, 11629, 11730, 11731, 11832, 11833, 11934, 11935, 12036, 12037, 12138, 12139, 12240
 12241, 12342, 12343, 12444, 12445, 12546, 12547, 12648, 12649, 12750, 12751, 12852, 12853, 12954, 12955, 13056
 13057, 13158, 13159, 13260, 13261, 13362, 13363, 13464, 13465, 13566, 13567, 13668, 13669, 13770, 13771, 13872
 13873, 13974, 13975, 14076, 14077, 14178, 14179, 14280, 14281, 14382, 14383, 14484, 14485, 14586, 14587, 14688
 14689, 14790, 14791, 14892, 14893, 14994, 14995, 15096, 15097, 15198, 15199, 15300, 15301, 15402, 15403, 15504
 15505, 15606, 15607, 15708, 15709, 15810, 15811, 15912, 15913, 16014, 16015, 16116, 16117, 16218, 16219, 16320
** ... 30 like lines cut
*Nset, nset=TRC_P
   1,   5,   6,   7,   8,   9,  10,  11,  12,  13,  14,  15,  16,  17,  18,  19
  20,  21,  22,  23,  24,  25,  26,  27,  28,  29,  30,  31,  32,  33,  34,  35
  36,  37,  38,  39,  40,  41,  42,  43,  44,  45,  46,  47,  48,  49,  50,  51
  52,  53,  54,  55,  56,  57,  58,  59,  60,  61,  62,  63,  64,  65,  66,  67
  68,  69,  70,  71,  72,  73,  74,  75,  76,  77,  78,  79,  80,  81,  82,  83
  84,  85,  86,  87,  88,  89,  90,  91,  92,  93,  94,  95,  96,  97,  98,  99
 100, 101, 102, 103, 104, 105
*Elset, elset=TRC_P
     1,     2,     3,     4,     5,     6,     7,     8,     9,    10,    11,    12,    13,    14,    15,    16
    17,    18,    19,    20,    21,    22,    23,    24,    25,    26,    27,    28,    29,    30,    31,    32
    33,    34,    35,    36,    37,    38,    39,    40,    41,    42,    43,    44,    45,    46,    47,    48
    49,    50,    51,    52,    53,    54,    55,    56,    57,    58,    59,    60,    61,    62,    63,    64
    65,    66,    67,    68,    69,    70,    71,    72,    73,    74,    75,    76,    77,    78,    79,    80
    81,    82,    83,    84,    85,    86,    87,    88,    89,    90,    91,    92,    93,    94,    95,    96
    97,    98,    99,   100,   101,   102, 40650, 40694, 40709, 40710, 40711, 40753, 40756, 40804, 40805, 40806
 40807, 40825, 40840, 40841, 40844, 40862, 40865, 40866, 40867, 40868, 40876, 40877, 40888, 40890, 40892, 40914
 40915, 40943, 40954, 40964, 40973, 40980, 40985, 40989, 40992, 40994, 40995, 41007, 41008, 41049, 41050, 41051
 41079, 41105, 41106, 41108, 41115, 41124, 41125, 41126, 41127, 41137, 41141, 41142, 41145, 41146, 41149, 41150
 41151, 41156, 41157, 41161, 41162, 41164, 41168, 41169, 41170, 41240, 41271, 41272, 41273, 41275, 41665, 41797
 41804, 41811, 41813, 41815, 41822, 41828, 41829, 41830, 41831, 41832, 41834, 41836, 41852, 41853, 41857, 42020
 42280, 42281, 42288, 42290, 42291, 42293, 42294, 42296, 42306, 42308, 42310, 42314
*Nset, nset=Base_Material
     2,     3,   116,   117,   118,   119,   120,   121,   122,   123,   124,   125,   126,   127,   128,   129
   130,   131,   132,   133,   134,   135,   136,   137,   138,   139,   140,   141,   142,   143,   144,   145
   146,   147,   148,   149,   150,   151,   152,   153,   154,   155,   156,   157,   158,   159,   160,   161
   162,   163,   164,   165,   166,   167,   168,   169,   170,   171,   172,   173,   174,   175,   176,   177
   178,   179,   180,   181,   182,   183,   184,   185,   186,   187,   188,   189,   190,   191,   192,   193
   194,   195,   196,   197,   198,   199,   200,   201,   202,   203,   204,   205,   206,   207,   208,   209
   210,   211,   212,   213,   214,   215,   216,   217,   218,   219,   220,   221,   222,   223,   224,   225
   226,   227,   228,   229,   230,   231,   232,   233,   234,   235,   236,   237,   238,   239,   240,   241
   242,   243,   244,   245,   246,   247,   248,   249,   250,   251,   252,   253,   254,   255,   256,   257
   258,   259,   260,   261,   262,   263,   264,   265,   266,   267,   268,   269,   270,   271,   272,   273
   274,   275,   276,   277,   278,   279,   280,   281,   282,   283,   284,   285,   286,   287,   288,   289
   290,   291,   292,   293,   294,   295,   296,   297,   298,   299,   300,   301,   302,   303,   304,   305
   306,   307,   308,   309,   310,   311,   312,   313,   314,   315,   316,   317,   318,   319,   320,   321
   322,   323,   324,   325,   326,   327,   328,   329,   330,   331,   332,   333,   334,   335,   336,   337
   338,   339,   340,   341,   342,   343,   344,   345,   346,   347,   348,   349,   350,   351,   352,   353
   354,   355,   356,   357,   358,   359,   360,   361,   362,   363,   364,   365,   366,   367,   368,   369
   370,   371,   372,   373,   374,   375,   376,   377,   378,   379,   380,   381,   382,   383,   384,   385
   386,   387,   388,   389,   390,   391,   392,   393,   394,   395,   396,   397,   398,   399,   400,   401
   402,   403,   404,   405,   406,   407,   408,   409,   410,   411,   412,   413,   414,   415,   416,   417
   418,   419,   420,   421,   422,   423,   424,   425,   426,   427,   428,   429,   430,   431,   432,   433
** ... 2454 like lines cut
*Elset, elset=Base_Material, generate
  1123,  40596,      1
*Nset, nset=MDZ_zone
     1,     2,     4,     5,     6,     7,     8,     9,    10,    11,    12,    13,    14,    15,    16,    17
    18,    19,    20,    21,    22,    23,    24,    25,    26,    27,    28,    29,    30,    31,    32,    33
    34,    35,    36,    37,    38,    39,    40,    41,    42,    43,    44,    45,    46,    47,    48,    49
    50,    51,    52,    53,    54,    55,    56,    57,    58,    59,    60,    61,    62,    63,    64,    65
    66,    67,    68,    69,    70,    71,    72,    73,    74,    75,    76,    77,    78,    79,    80,    81
    82,    83,    84,    85,    86,    87,    88,    89,    90,    91,    92,    93,    94,    95,    96,    97
    98,    99,   100,   101,   102,   103,   104,   105,   106,   107,   108,   109,   110,   111,   112,   113
   114,   115,   116,   117,   118,   119,   120,   121,   122,   123,   124,   125,   126,   127,   128,   129
   130,   131,   132,   133,   134,   135,   136,   137,   138,   139,   140,   141,   142,   143,   144,   145
   146,   147,   148,   149,   150,   151,   152,   153,   154,   155,   156,   157,   158,   159,   160,   161
   162,   163,   164,   165,   166,   167,   168,   169,   170,   171,   172,   173,   174,   175,   176,   177
   178,   179,   180,   181,   182,   183,   184,   185,   186,   187,   188,   189,   190,   191,   192,   193
   194,   195,   196,   197,   198,   199,   200,   201,   202,   203,   204,   205,   206,   207,   208,   209
   210,   211,   212,   213,   214,   215,   216,   704,   705,   706,   707,   708,   709,   710,   711,   712
   713,   714,   715,   716,   717,   718,   719,   720,   721,   722,   723,   724,   725,   726,   727,   728
   729,   730,   731,   732,   733,   734,   735,   736,   737,   738,   739,   740,   741,   742,   743,   744
   745,   746,   747,   748,   749,   750,   751,   752,   753,   754,   755,   756,   757,   758,   759,   760
   761,   762,   763,   764,   765,   766,   767,   768,   769,   770,   771,   772,   773,   774,   775,   776
   777,   778,   779,   780,   781,   782,   783,   784,   785,   786,   787,   788,   789,   790,   791,   792
   793,   794,   795,   796,   797,   798,   799,   800,   801,   802,   803,   804,   805,   806,   807,   808
** ... 165 like lines cut
*Elset, elset=MDZ_zone
     1,     2,     3,     4,     5,     6,     7,     8,     9,    10,    11,    12,    13,    14,    15,    16
    17,    18,    19,    20,    21,    22,    23,    24,    25,    26,    27,    28,    29,    30,    31,    32
    33,    34,    35,    36,    37,    38,    39,    40,    41,    42,    43,    44,    45,    46,    47,    48
    49,    50,    51,    52,    53,    54,    55,    56,    57,    58,    59,    60,    61,    62,    63,    64
    65,    66,    67,    68,    69,    70,    71,    72,    73,    74,    75,    76,    77,    78,    79,    80
    81,    82,    83,    84,    85,    86,    87,    88,    89,    90,    91,    92,    93,    94,    95,    96
    97,    98,    99,   100,   101,   102,   103,   104,   105,   106,   107,   108,   109,   110,   111,   112
   113,   114,   115,   116,   117,   118,   119,   120,   121,   122,   123,   124,   125,   126,   127,   128
   129,   130,   131,   132,   133,   134,   135,   136,   137,   138,   139,   140,   141,   142,   143,   144
   145,   146,   147,   148,   149,   150,   151,   152,   153,   154,   155,   156,   157,   158,   159,   160
   161,   162,   163,   164,   165,   166,   167,   168,   169,   170,   171,   172,   173,   174,   175,   176
   177,   178,   179,   180,   181,   182,   183,   184,   185,   186,   187,   188,   189,   190,   191,   192
   193,   194,   195,   196,   197,   198,   199,   200,   201,   202,   203,   204,   205,   206,   207,   208
   209,   210,   211,   212,   213,   214,   215,   216,   217,   218,   219,   220,   221,   222,   223,   224
   225,   226,   227,   228,   229,   230,   231,   232,   233,   234,   235,   236,   237,   238,   239,   240
   241,   242,   243,   244,   245,   246,   247,   248,   249,   250,   251,   252,   253,   254,   255,   256
   257,   258,   259,   260,   261,   262,   263,   264,   265,   266,   267,   268,   269,   270,   271,   272
   273,   274,   275,   276,   277,   278,   279,   280,   281,   282,   283,   284,   285,   286,   287,   288
   289,   290,   291,   292,   293,   294,   295,   296,   297,   298,   299,   300,   301,   302,   303,   304
   305,   306,   307,   308,   309,   310,   311,   312,   313,   314,   315,   316,   317,   318,   319,   320
** ... 163 like lines cut
*Elset, elset=_Inner_base_SNEG, internal, generate
  1123,  40596,      1
*Surface, type=ELEMENT, name=Inner_base
_Inner_base_SNEG, SNEG
*Elset, elset=_MDZ_Outer_SPOS, internal
     1,     2,     3,     4,     5,     6,     7,     8,     9,    10,    11,    12,    13,    14,    15,    16
    17,    18,    19,    20,    21,    22,    23,    24,    25,    26,    27,    28,    29,    30,    31,    32
    33,    34,    35,    36,    37,    38,    39,    40,    41,    42,    43,    44,    45,    46,    47,    48
    49,    50,    51,    52,    53,    54,    55,    56,    57,    58,    59,    60,    61,    62,    63,    64
    65,    66,    67,    68,    69,    70,    71,    72,    73,    74,    75,    76,    77,    78,    79,    80
    81,    82,    83,    84,    85,    86,    87,    88,    89,    90,    91,    92,    93,    94,    95,    96
    97,    98,    99,   100,   101,   102,   103,   104,   105,   106,   107,   108,   109,   110,   111,   112
   113,   114,   115,   116,   117,   118,   119,   120,   121,   122,   123,   124,   125,   126,   127,   128
   129,   130,   131,   132,   133,   134,   135,   136,   137,   138,   139,   140,   141,   142,   143,   144
   145,   146,   147,   148,   149,   150,   151,   152,   153,   154,   155,   156,   157,   158,   159,   160
   161,   162,   163,   164,   165,   166,   167,   168,   169,   170,   171,   172,   173,   174,   175,   176
   177,   178,   179,   180,   181,   182,   183,   184,   185,   186,   187,   188,   189,   190,   191,   192
   193,   194,   195,   196,   197,   198,   199,   200,   201,   202,   203,   204,   205,   206,   207,   208
   209,   210,   211,   212,   213,   214,   215,   216,   217,   218,   219,   220,   221,   222,   223,   224
   225,   226,   227,   228,   229,   230,   231,   232,   233,   234,   235,   236,   237,   238,   239,   240
   241,   242,   243,   244,   245,   246,   247,   248,   249,   250,   251,   252,   253,   254,   255,   256
   257,   258,   259,   260,   261,   262,   263,   264,   265,   266,   267,   268,   269,   270,   271,   272
   273,   274,   275,   276,   277,   278,   279,   280,   281,   282,   283,   284,   285,   286,   287,   288
   289,   290,   291,   292,   293,   294,   295,   296,   297,   298,   299,   300,   301,   302,   303,   304
   305,   306,   307,   308,   309,   310,   311,   312,   313,   314,   315,   316,   317,   318,   319,   320
** ... 163 like lines cut
*Surface, type=ELEMENT, name=MDZ_Outer
_MDZ_Outer_SPOS, SPOS
*Elset, elset=_MDZ_inner_SNEG, internal
     1,     2,     3,     4,     5,     6,     7,     8,     9,    10,    11,    12,    13,    14,    15,    16
    17,    18,    19,    20,    21,    22,    23,    24,    25,    26,    27,    28,    29,    30,    31,    32
    33,    34,    35,    36,    37,    38,    39,    40,    41,    42,    43,    44,    45,    46,    47,    48
    49,    50,    51,    52,    53,    54,    55,    56,    57,    58,    59,    60,    61,    62,    63,    64
    65,    66,    67,    68,    69,    70,    71,    72,    73,    74,    75,    76,    77,    78,    79,    80
    81,    82,    83,    84,    85,    86,    87,    88,    89,    90,    91,    92,    93,    94,    95,    96
    97,    98,    99,   100,   101,   102,   103,   104,   105,   106,   107,   108,   109,   110,   111,   112
   113,   114,   115,   116,   117,   118,   119,   120,   121,   122,   123,   124,   125,   126,   127,   128
   129,   130,   131,   132,   133,   134,   135,   136,   137,   138,   139,   140,   141,   142,   143,   144
   145,   146,   147,   148,   149,   150,   151,   152,   153,   154,   155,   156,   157,   158,   159,   160
   161,   162,   163,   164,   165,   166,   167,   168,   169,   170,   171,   172,   173,   174,   175,   176
   177,   178,   179,   180,   181,   182,   183,   184,   185,   186,   187,   188,   189,   190,   191,   192
   193,   194,   195,   196,   197,   198,   199,   200,   201,   202,   203,   204,   205,   206,   207,   208
   209,   210,   211,   212,   213,   214,   215,   216,   217,   218,   219,   220,   221,   222,   223,   224
   225,   226,   227,   228,   229,   230,   231,   232,   233,   234,   235,   236,   237,   238,   239,   240
   241,   242,   243,   244,   245,   246,   247,   248,   249,   250,   251,   252,   253,   254,   255,   256
   257,   258,   259,   260,   261,   262,   263,   264,   265,   266,   267,   268,   269,   270,   271,   272
   273,   274,   275,   276,   277,   278,   279,   280,   281,   282,   283,   284,   285,   286,   287,   288
   289,   290,   291,   292,   293,   294,   295,   296,   297,   298,   299,   300,   301,   302,   303,   304
   305,   306,   307,   308,   309,   310,   311,   312,   313,   314,   315,   316,   317,   318,   319,   320
** ... 163 like lines cut
*Surface, type=ELEMENT, name=MDZ_inner
_MDZ_inner_SNEG, SNEG
*Elset, elset=_Outer_base_SPOS, internal, generate
  1123,  40596,      1
*Surface, type=ELEMENT, name=Outer_base
_Outer_base_SPOS, SPOS
*Elset, elset=_whole_inner_SNEG, internal, generate
     1,  42398,      1
*Surface, type=ELEMENT, name=whole_inner
_whole_inner_SNEG, SNEG
*Elset, elset=_whole_outer_SPOS, internal, generate
     1,  42398,      1
*Surface, type=ELEMENT, name=whole_outer
_whole_outer_SPOS, SPOS
*Orientation, name=Ori-2, system=CYLINDRICAL
          0.,           0.,           0.,           0.,           1.,           0.
1, 0.
** Region: (MDZ-1: Generated From Layup)
*Elset, elset=MDZ-1
     1,     2,     3,     4,     5,     6,     7,     8,     9,    10,    11,    12,    13,    14,    15,    16
    17,    18,    19,    20,    21,    22,    23,    24,    25,    26,    27,    28,    29,    30,    31,    32
    33,    34,    35,    36,    37,    38,    39,    40,    41,    42,    43,    44,    45,    46,    47,    48
    49,    50,    51,    52,    53,    54,    55,    56,    57,    58,    59,    60,    61,    62,    63,    64
    65,    66,    67,    68,    69,    70,    71,    72,    73,    74,    75,    76,    77,    78,    79,    80
    81,    82,    83,    84,    85,    86,    87,    88,    89,    90,    91,    92,    93,    94,    95,    96
    97,    98,    99,   100,   101,   102,   103,   104,   105,   106,   107,   108,   109,   110,   111,   112
   113,   114,   115,   116,   117,   118,   119,   120,   121,   122,   123,   124,   125,   126,   127,   128
   129,   130,   131,   132,   133,   134,   135,   136,   137,   138,   139,   140,   141,   142,   143,   144
   145,   146,   147,   148,   149,   150,   151,   152,   153,   154,   155,   156,   157,   158,   159,   160
   161,   162,   163,   164,   165,   166,   167,   168,   169,   170,   171,   172,   173,   174,   175,   176
   177,   178,   179,   180,   181,   182,   183,   184,   185,   186,   187,   188,   189,   190,   191,   192
   193,   194,   195,   196,   197,   198,   199,   200,   201,   202,   203,   204,   205,   206,   207,   208
   209,   210,   211,   212,   213,   214,   215,   216,   217,   218,   219,   220,   221,   222,   223,   224
   225,   226,   227,   228,   229,   230,   231,   232,   233,   234,   235,   236,   237,   238,   239,   240
   241,   242,   243,   244,   245,   246,   247,   248,   249,   250,   251,   252,   253,   254,   255,   256
   257,   258,   259,   260,   261,   262,   263,   264,   265,   266,   267,   268,   269,   270,   271,   272
   273,   274,   275,   276,   277,   278,   279,   280,   281,   282,   283,   284,   285,   286,   287,   288
   289,   290,   291,   292,   293,   294,   295,   296,   297,   298,   299,   300,   301,   302,   303,   304
   305,   306,   307,   308,   309,   310,   311,   312,   313,   314,   315,   316,   317,   318,   319,   320
** ... 163 like lines cut
** Section: MDZ-1
*Shell Section, elset=MDZ-1, composite, orientation=Ori-2, layup=MDZ
1.125e-05, 3, MDZ_Isotropic, 0., Ply-1
0.0001275, 3, Pectin, 0., Ply-2
1.125e-05, 3, MDZ_Isotropic, 0., Ply-3
*Orientation, name=Ori-1, system=CYLINDRICAL
          0.,           0.,           0.,           0.,           1.,           0.
1, 0.
** Region: (Base-1: Generated From Layup)
*Elset, elset=Base-1, generate
  1123,  40596,      1
** Section: Base-1
*Shell Section, elset=Base-1, composite, orientation=Ori-1, layup=Base
1.125e-05, 3, Cellulose, 0., Ply-1
0.0001275, 3, Pectin, 0., Ply-2
1.125e-05, 3, Cellulose, 0., Ply-3
*End Part
**  
**
** ASSEMBLY
**
*Assembly, name=Assembly
**  
*Instance, name=Cotton_1-1, part=Cotton_1
*End Instance
**  
*End Assembly
*Amplitude, name=Atm, definition=SMOOTH STEP
             0.,              0.,             0.2,              1.,              1.,              1.
*Amplitude, name=Turgor, definition=SMOOTH STEP
             0.,              0.,             0.2,              1.,              1.,              1.
** 
** MATERIALS
** 
*Material, name=Cellulose
*Density
 1.65e-09,
*Elastic, type=LAMINA
70000., 100., 0.45,  45.,  45.,  45.
*Material, name=MDZ_Isotropic
*Density
 1.09e-09,
*Elastic
400., 0.45
*Material, name=Pectin
*Density
 1e-09,
*Elastic, moduli=INSTANTANEOUS
100., 0.45
*Viscoelastic, time=PRONY
 0.33,   0., 10.2
 0.25,   0.,  1.8
** ----------------------------------------------------------------
** 
** STEP: Step-1
** 
*Step, name=Step-1, nlgeom=YES
*Static
0.1, 25., 0.00025, 25.
** 
*Bulk Viscosity
0.06, 1.2
** Mass Scaling: Semi-Automatic
**               Whole Model
*Variable Mass Scaling, dt=5e-06, type=below min, frequency=50
** 
** BOUNDARY CONDITIONS
** 
** Name: BC-1 Type: Symmetry/Antisymmetry/Encastre
*Boundary
Cotton_1-1.Base, PINNED
** 
** LOADS
** 
** Name: Turgor   Type: Pressure
*Dsload, amplitude=Turgor
Cotton_1-1.whole_inner, P, 0.5
** Name: atm   Type: Pressure
*Dsload, amplitude=Atm
Cotton_1-1.whole_outer, P, 0.1
** 
** OUTPUT REQUESTS
** 
*Restart, write, number interval=1, time marks=NO
** 
** FIELD OUTPUT: F-Output-1
** 
*Output, field, variable=PRESELECT
** 
** HISTORY OUTPUT: H-Output-1
** 
*Output, history, variable=PRESELECT
*End Step
