** This Abaqus input file, created in 2021 by Sedighe Keynia, 
** University of Nebraska-Lincoln (UNL), was used to generate
** the result shown in Fig. 10A-2 of 
** Yanagisawa, et al., insilicoPlants, 2022 
** (https://doi.org/10.1093/insilicoplants/diac004) 
** Please cite this paper if this file is helpful.
** Questions about this model should be directed to
** Professor Joseph Turner, (jaturner@unl.edu)
**
*Heading
** Job name: Job-11_CFG_5 Model name: Model-5
** Generated by: Abaqus/CAE 2019
*Preprint, echo=NO, model=NO, history=NO, contact=NO
**
** PARTS
**
*Part, name=Cotton_1
*Node
      1, 0.00725999987, 0.0562399998,           0.
      2, 0.00621047523, 0.0599999987,           0.
      3,           0.,  0.063500002,           0.
      4, 0.00800000038,           0.,           0.
      5, 0.0072481595, 0.0562399998, 0.000414464768
      6, 0.0072126775, 0.0562399998, 0.000827577664
      7, 0.00715366891, 0.0562399998, 0.00123799115
      8, 0.00707132649, 0.0562399998, 0.00164436654
      9, 0.00696591893, 0.0562399998, 0.00204537832
     10, 0.0068377899, 0.0562399998, 0.00243971869
     11, 0.00668735756, 0.0562399998, 0.00282610091
     12, 0.00651511271, 0.0562399998, 0.00320326514
     13, 0.00632161647, 0.0562399998, 0.00356998108
     14, 0.00610750075, 0.0562399998, 0.00392505247
     15, 0.00587346358, 0.0562399998, 0.00426732097
     16, 0.00562026817, 0.0562399998, 0.00459567038
     17, 0.00534874061, 0.0562399998, 0.0049090297
     18, 0.00505976658, 0.0562399998, 0.00520637678
     19, 0.00475428905, 0.0562399998, 0.00548674213
     20, 0.00443330361, 0.0562399998, 0.00574921025
** ... 17934 like lines cut
*Element, type=S4R
   1,    1,  113,  499,  114
   2,  113,  112,  500,  499
   3,  112,  111,  501,  500
   4,  111,  110,  502,  501
   5,  110,  109,  503,  502
   6,  109,  108,  504,  503
   7,  108,  107,  505,  504
   8,  107,  106,  506,  505
   9,  106,  105,  507,  506
  10,  105,  104,  508,  507
  11,  104,  103,  509,  508
  12,  103,  102,  510,  509
  13,  102,  101,  511,  510
  14,  101,  100,  512,  511
  15,  100,   99,  513,  512
  16,   99,   98,  514,  513
  17,   98,   97,  515,  514
  18,   97,   96,  516,  515
  19,   96,   95,  517,  516
  20,   95,   94,  518,  517
** ... 17854 like lines cut
*Element, type=S3
1101, 1528, 1516, 1527
1102, 1910, 1848, 1892
1103, 1815, 1816, 1862
1104, 1934, 1935, 1981
1105, 1935, 1936, 1980
1106, 2073, 2506, 2072
1107, 2535, 2476, 2167
1108, 2658, 2293, 2149
1109, 2299, 2298, 2144
1110, 2597, 2650, 1829
1111, 1580, 1619, 1618
1112, 2489, 2472, 2032
1113, 2646, 2582, 2581
1114, 2678, 1632, 1647
1115, 1662, 1661, 2313
1116, 2536, 2333, 2107
1117, 1743, 1688, 1742
1118, 2622, 1690, 2653
1119, 1924, 1923, 1938
1120, 2628, 1708, 1707
** ... 28 like lines cut
*Nset, nset=BASE_L_Edge
   1,   2,   3,   4, 114, 115, 116, 117, 118, 119, 120, 121, 122, 232, 233, 234
 235, 236, 237, 238, 239, 240, 241, 242, 243, 244, 245, 246, 247, 248, 249, 250
 251, 252, 253, 254, 255, 256, 257, 258, 259, 260, 261, 262, 263, 264, 265, 266
 267, 268, 269, 270, 271, 272, 273, 274, 275, 276, 277, 278, 279, 280, 281, 282
 283, 284, 285, 286, 287, 288, 289, 290, 291, 292, 293, 294, 295, 296, 297, 298
 299, 300, 301, 302, 303, 304, 305, 306, 307, 308, 309, 310, 311, 312, 313, 314
 315, 316, 317, 318, 319, 320, 321, 322, 323, 324, 325, 326, 327, 328, 329, 330
 331, 332, 333, 334, 335, 336, 337, 338, 339, 340, 341, 342, 343, 344, 345, 346
 347, 348, 349, 350, 351, 352, 353, 354, 355, 356, 357, 358, 359, 360, 361, 362
 363, 364, 365, 366, 367, 368, 369, 370, 371, 372, 373, 374, 375, 376, 377, 378
 379, 380, 381, 382, 383, 384, 385, 386, 387, 388, 389
*Elset, elset=BASE_L_Edge
     1,   110,   111,   220,   221,   330,   331,   440,   441,   550,   551,   660,   661,   770,   771,   880
   881,   990,   991,  1100,  1149,  1398,  1399,  1400,  1539,  1540,  1562,  1563,  1564,  1634,  1648,  1652
  1653,  1664,  1665,  1666,  1670,  1671,  1672,  1676,  1677,  1678,  1682,  1683,  1686,  1687,  1688,  1692
  1694,  1695,  1696,  1697,  1698,  1934,  2243,  2244,  2260,  2299,  2413,  2414,  2415,  2416,  2417,  2418
  2419,  2420,  2421,  2422,  2423,  2424,  2425,  2426,  2427,  2428,  2429,  2430,  2431,  2432,  2433,  2434
  2435,  2436,  2437,  2438,  2439,  2440,  2441,  2442,  2443,  2444,  2445,  2446,  2447,  2448,  2449,  2450
  2451,  2452,  2453,  2454,  2455,  2456,  2457,  2458,  2459,  2460,  2461,  2462,  2463,  2464,  2465,  2466
  2467,  2468,  2469,  2470,  2471,  2472,  2473,  2474,  2475,  2476,  2477,  2478,  2479,  2480,  2481,  2482
  2483,  2484,  2485,  2486,  2487,  2488,  2489,  2490,  2491,  2492,  2493,  2494,  2495,  2496,  2497,  2498
  2499,  2500,  2501,  2502,  2503,  2504,  2505,  2506,  2507,  2508,  2509,  2510,  2511,  2512,  2513,  2514
  2515,  2516,  2517,  2518,  2519,  2520,  2521,  2522,  2523,  2524,  2525,  2526,  2527,  2528,  2529,  2530
  2531,  2532,  2533,  2534,  2535,  2536,  2537,  2538,  2539,  2540,  2541,  2542,  2543,  2544,  2545,  2546
  2547,  2548,  2549,  2550,  2551,  2552,  2553, 17782, 17783, 17784, 17785, 17786, 17787, 17788, 17789, 17790
 17791, 17792, 17793, 17794, 17795, 17796, 17797, 17798, 17799, 17800, 17801, 17802, 17803, 17804, 17805, 17806
 17807, 17808, 17809, 17810, 17811, 17812, 17813, 17814, 17815, 17816, 17817, 17818, 17819, 17820, 17821, 17822
 17823, 17824, 17825, 17826, 17827, 17828, 17829, 17830, 17831, 17832, 17833, 17834, 17835, 17836, 17837, 17838
 17839, 17840, 17841, 17842, 17843, 17844, 17845, 17846, 17847, 17848, 17849, 17850, 17851, 17852, 17853, 17854
 17855, 17856, 17857, 17858, 17859, 17860, 17861, 17862, 17863, 17864, 17865, 17866, 17867, 17868, 17869, 17870
 17871, 17872, 17873, 17874, 17875, 17876, 17877, 17878, 17879, 17880, 17881, 17882, 17883, 17884, 17885, 17886
 17887, 17888, 17889, 17890, 17891, 17892, 17893, 17894, 17895, 17896, 17897, 17898, 17899, 17900, 17901, 17902
 17903, 17904, 17905, 17906, 17907, 17908, 17909, 17910, 17911, 17912, 17913, 17914, 17915, 17916, 17917, 17918
 17919, 17920, 17921, 17922
*Nset, nset=Base
   4, 390, 391, 392, 393, 394, 395, 396, 397, 398, 399, 400, 401, 402, 403, 404
 405, 406, 407, 408, 409, 410, 411, 412, 413, 414, 415, 416, 417, 418, 419, 420
 421, 422, 423, 424, 425, 426, 427, 428, 429, 430, 431, 432, 433, 434, 435, 436
 437, 438, 439, 440, 441, 442, 443, 444, 445, 446, 447, 448, 449, 450, 451, 452
 453, 454, 455, 456, 457, 458, 459, 460, 461, 462, 463, 464, 465, 466, 467, 468
 469, 470, 471, 472, 473, 474, 475, 476, 477, 478, 479, 480, 481, 482, 483, 484
 485, 486, 487, 488, 489, 490, 491, 492, 493, 494, 495, 496, 497, 498
*Elset, elset=Base, generate
  2553,  17922,    141
*Nset, nset=Base_M_Edge
   1,   2,   4, 114, 115, 116, 117, 118, 119, 120, 121, 122, 250, 251, 252, 253
 254, 255, 256, 257, 258, 259, 260, 261, 262, 263, 264, 265, 266, 267, 268, 269
 270, 271, 272, 273, 274, 275, 276, 277, 278, 279, 280, 281, 282, 283, 284, 285
 286, 287, 288, 289, 290, 291, 292, 293, 294, 295, 296, 297, 298, 299, 300, 301
 302, 303, 304, 305, 306, 307, 308, 309, 310, 311, 312, 313, 314, 315, 316, 317
 318, 319, 320, 321, 322, 323, 324, 325, 326, 327, 328, 329, 330, 331, 332, 333
 334, 335, 336, 337, 338, 339, 340, 341, 342, 343, 344, 345, 346, 347, 348, 349
 350, 351, 352, 353, 354, 355, 356, 357, 358, 359, 360, 361, 362, 363, 364, 365
 366, 367, 368, 369, 370, 371, 372, 373, 374, 375, 376, 377, 378, 379, 380, 381
 382, 383, 384, 385, 386, 387, 388, 389
*Elset, elset=Base_M_Edge
     1,   110,   111,   220,   221,   330,   331,   440,   441,   550,   551,   660,   661,   770,   771,   880
   881,   990,   991,  1100,  2413,  2414,  2415,  2416,  2417,  2418,  2419,  2420,  2421,  2422,  2423,  2424
  2425,  2426,  2427,  2428,  2429,  2430,  2431,  2432,  2433,  2434,  2435,  2436,  2437,  2438,  2439,  2440
  2441,  2442,  2443,  2444,  2445,  2446,  2447,  2448,  2449,  2450,  2451,  2452,  2453,  2454,  2455,  2456
  2457,  2458,  2459,  2460,  2461,  2462,  2463,  2464,  2465,  2466,  2467,  2468,  2469,  2470,  2471,  2472
  2473,  2474,  2475,  2476,  2477,  2478,  2479,  2480,  2481,  2482,  2483,  2484,  2485,  2486,  2487,  2488
  2489,  2490,  2491,  2492,  2493,  2494,  2495,  2496,  2497,  2498,  2499,  2500,  2501,  2502,  2503,  2504
  2505,  2506,  2507,  2508,  2509,  2510,  2511,  2512,  2513,  2514,  2515,  2516,  2517,  2518,  2519,  2520
  2521,  2522,  2523,  2524,  2525,  2526,  2527,  2528,  2529,  2530,  2531,  2532,  2533,  2534,  2535,  2536
  2537,  2538,  2539,  2540,  2541,  2542,  2543,  2544,  2545,  2546,  2547,  2548,  2549,  2550,  2551,  2552
  2553, 17782, 17783, 17784, 17785, 17786, 17787, 17788, 17789, 17790, 17791, 17792, 17793, 17794, 17795, 17796
 17797, 17798, 17799, 17800, 17801, 17802, 17803, 17804, 17805, 17806, 17807, 17808, 17809, 17810, 17811, 17812
 17813, 17814, 17815, 17816, 17817, 17818, 17819, 17820, 17821, 17822, 17823, 17824, 17825, 17826, 17827, 17828
 17829, 17830, 17831, 17832, 17833, 17834, 17835, 17836, 17837, 17838, 17839, 17840, 17841, 17842, 17843, 17844
 17845, 17846, 17847, 17848, 17849, 17850, 17851, 17852, 17853, 17854, 17855, 17856, 17857, 17858, 17859, 17860
 17861, 17862, 17863, 17864, 17865, 17866, 17867, 17868, 17869, 17870, 17871, 17872, 17873, 17874, 17875, 17876
 17877, 17878, 17879, 17880, 17881, 17882, 17883, 17884, 17885, 17886, 17887, 17888, 17889, 17890, 17891, 17892
 17893, 17894, 17895, 17896, 17897, 17898, 17899, 17900, 17901, 17902, 17903, 17904, 17905, 17906, 17907, 17908
 17909, 17910, 17911, 17912, 17913, 17914, 17915, 17916, 17917, 17918, 17919, 17920, 17921, 17922
*Nset, nset=Base_edge
   1,   4, 250, 251, 252, 253, 254, 255, 256, 257, 258, 259, 260, 261, 262, 263
 264, 265, 266, 267, 268, 269, 270, 271, 272, 273, 274, 275, 276, 277, 278, 279
 280, 281, 282, 283, 284, 285, 286, 287, 288, 289, 290, 291, 292, 293, 294, 295
 296, 297, 298, 299, 300, 301, 302, 303, 304, 305, 306, 307, 308, 309, 310, 311
 312, 313, 314, 315, 316, 317, 318, 319, 320, 321, 322, 323, 324, 325, 326, 327
 328, 329, 330, 331, 332, 333, 334, 335, 336, 337, 338, 339, 340, 341, 342, 343
 344, 345, 346, 347, 348, 349, 350, 351, 352, 353, 354, 355, 356, 357, 358, 359
 360, 361, 362, 363, 364, 365, 366, 367, 368, 369, 370, 371, 372, 373, 374, 375
 376, 377, 378, 379, 380, 381, 382, 383, 384, 385, 386, 387, 388, 389
*Elset, elset=Base_edge
  2413,  2414,  2415,  2416,  2417,  2418,  2419,  2420,  2421,  2422,  2423,  2424,  2425,  2426,  2427,  2428
  2429,  2430,  2431,  2432,  2433,  2434,  2435,  2436,  2437,  2438,  2439,  2440,  2441,  2442,  2443,  2444
  2445,  2446,  2447,  2448,  2449,  2450,  2451,  2452,  2453,  2454,  2455,  2456,  2457,  2458,  2459,  2460
  2461,  2462,  2463,  2464,  2465,  2466,  2467,  2468,  2469,  2470,  2471,  2472,  2473,  2474,  2475,  2476
  2477,  2478,  2479,  2480,  2481,  2482,  2483,  2484,  2485,  2486,  2487,  2488,  2489,  2490,  2491,  2492
  2493,  2494,  2495,  2496,  2497,  2498,  2499,  2500,  2501,  2502,  2503,  2504,  2505,  2506,  2507,  2508
  2509,  2510,  2511,  2512,  2513,  2514,  2515,  2516,  2517,  2518,  2519,  2520,  2521,  2522,  2523,  2524
  2525,  2526,  2527,  2528,  2529,  2530,  2531,  2532,  2533,  2534,  2535,  2536,  2537,  2538,  2539,  2540
  2541,  2542,  2543,  2544,  2545,  2546,  2547,  2548,  2549,  2550,  2551,  2552,  2553, 17782, 17783, 17784
 17785, 17786, 17787, 17788, 17789, 17790, 17791, 17792, 17793, 17794, 17795, 17796, 17797, 17798, 17799, 17800
 17801, 17802, 17803, 17804, 17805, 17806, 17807, 17808, 17809, 17810, 17811, 17812, 17813, 17814, 17815, 17816
 17817, 17818, 17819, 17820, 17821, 17822, 17823, 17824, 17825, 17826, 17827, 17828, 17829, 17830, 17831, 17832
 17833, 17834, 17835, 17836, 17837, 17838, 17839, 17840, 17841, 17842, 17843, 17844, 17845, 17846, 17847, 17848
 17849, 17850, 17851, 17852, 17853, 17854, 17855, 17856, 17857, 17858, 17859, 17860, 17861, 17862, 17863, 17864
 17865, 17866, 17867, 17868, 17869, 17870, 17871, 17872, 17873, 17874, 17875, 17876, 17877, 17878, 17879, 17880
 17881, 17882, 17883, 17884, 17885, 17886, 17887, 17888, 17889, 17890, 17891, 17892, 17893, 17894, 17895, 17896
 17897, 17898, 17899, 17900, 17901, 17902, 17903, 17904, 17905, 17906, 17907, 17908, 17909, 17910, 17911, 17912
 17913, 17914, 17915, 17916, 17917, 17918, 17919, 17920, 17921, 17922
*Nset, nset=TRC_P
   1,   5,   6,   7,   8,   9,  10,  11,  12,  13,  14,  15,  16,  17,  18,  19
  20,  21,  22,  23,  24,  25,  26,  27,  28,  29,  30,  31,  32,  33,  34,  35
  36,  37,  38,  39,  40,  41,  42,  43,  44,  45,  46,  47,  48,  49,  50,  51
  52,  53,  54,  55,  56,  57,  58,  59,  60,  61,  62,  63,  64,  65,  66,  67
  68,  69,  70,  71,  72,  73,  74,  75,  76,  77,  78,  79,  80,  81,  82,  83
  84,  85,  86,  87,  88,  89,  90,  91,  92,  93,  94,  95,  96,  97,  98,  99
 100, 101, 102, 103, 104, 105, 106, 107, 108, 109, 110, 111, 112, 113
*Elset, elset=TRC_P
     1,     2,     3,     4,     5,     6,     7,     8,     9,    10,    11,    12,    13,    14,    15,    16
    17,    18,    19,    20,    21,    22,    23,    24,    25,    26,    27,    28,    29,    30,    31,    32
    33,    34,    35,    36,    37,    38,    39,    40,    41,    42,    43,    44,    45,    46,    47,    48
    49,    50,    51,    52,    53,    54,    55,    56,    57,    58,    59,    60,    61,    62,    63,    64
    65,    66,    67,    68,    69,    70,    71,    72,    73,    74,    75,    76,    77,    78,    79,    80
    81,    82,    83,    84,    85,    86,    87,    88,    89,    90,    91,    92,    93,    94,    95,    96
    97,    98,    99,   100,   101,   102,   103,   104,   105,   106,   107,   108,   109,   110,  2413,  2554
  2695,  2836,  2977,  3118,  3259,  3400,  3541,  3682,  3823,  3964,  4105,  4246,  4387,  4528,  4669,  4810
  4951,  5092,  5233,  5374,  5515,  5656,  5797,  5938,  6079,  6220,  6361,  6502,  6643,  6784,  6925,  7066
  7207,  7348,  7489,  7630,  7771,  7912,  8053,  8194,  8335,  8476,  8617,  8758,  8899,  9040,  9181,  9322
  9463,  9604,  9745,  9886, 10027, 10168, 10309, 10450, 10591, 10732, 10873, 11014, 11155, 11296, 11437, 11578
 11719, 11860, 12001, 12142, 12283, 12424, 12565, 12706, 12847, 12988, 13129, 13270, 13411, 13552, 13693, 13834
 13975, 14116, 14257, 14398, 14539, 14680, 14821, 14962, 15103, 15244, 15385, 15526, 15667, 15808, 15949, 16090
 16231, 16372, 16513, 16654, 16795, 16936, 17077, 17218, 17359, 17500, 17641, 17782
*Nset, nset=TRC_edge
   1,   2, 114, 115, 116, 117, 118, 119, 120, 121, 122
*Elset, elset=TRC_edge
    1,  110,  111,  220,  221,  330,  331,  440,  441,  550,  551,  660,  661,  770,  771,  880
  881,  990,  991, 1100
*Nset, nset=tip
    1,    2,    3,    5,    6,    7,    8,    9,   10,   11,   12,   13,   14,   15,   16,   17
   18,   19,   20,   21,   22,   23,   24,   25,   26,   27,   28,   29,   30,   31,   32,   33
   34,   35,   36,   37,   38,   39,   40,   41,   42,   43,   44,   45,   46,   47,   48,   49
   50,   51,   52,   53,   54,   55,   56,   57,   58,   59,   60,   61,   62,   63,   64,   65
   66,   67,   68,   69,   70,   71,   72,   73,   74,   75,   76,   77,   78,   79,   80,   81
   82,   83,   84,   85,   86,   87,   88,   89,   90,   91,   92,   93,   94,   95,   96,   97
   98,   99,  100,  101,  102,  103,  104,  105,  106,  107,  108,  109,  110,  111,  112,  113
  114,  115,  116,  117,  118,  119,  120,  121,  122,  123,  124,  125,  126,  127,  128,  129
  130,  131,  132,  133,  134,  135,  136,  137,  138,  139,  140,  141,  142,  143,  144,  145
  146,  147,  148,  149,  150,  151,  152,  153,  154,  155,  156,  157,  158,  159,  160,  161
  162,  163,  164,  165,  166,  167,  168,  169,  170,  171,  172,  173,  174,  175,  176,  177
  178,  179,  180,  181,  182,  183,  184,  185,  186,  187,  188,  189,  190,  191,  192,  193
  194,  195,  196,  197,  198,  199,  200,  201,  202,  203,  204,  205,  206,  207,  208,  209
  210,  211,  212,  213,  214,  215,  216,  217,  218,  219,  220,  221,  222,  223,  224,  225
  226,  227,  228,  229,  230,  231,  232,  233,  234,  235,  236,  237,  238,  239,  240,  241
  242,  243,  244,  245,  246,  247,  248,  249,  499,  500,  501,  502,  503,  504,  505,  506
  507,  508,  509,  510,  511,  512,  513,  514,  515,  516,  517,  518,  519,  520,  521,  522
  523,  524,  525,  526,  527,  528,  529,  530,  531,  532,  533,  534,  535,  536,  537,  538
  539,  540,  541,  542,  543,  544,  545,  546,  547,  548,  549,  550,  551,  552,  553,  554
  555,  556,  557,  558,  559,  560,  561,  562,  563,  564,  565,  566,  567,  568,  569,  570
** ... 133 like lines cut
*Elset, elset=tip, generate
    1,  2412,     1
*Nset, nset=MDZ_edge
   2,   3, 232, 233, 234, 235, 236, 237, 238, 239, 240, 241, 242, 243, 244, 245
 246, 247, 248, 249
*Elset, elset=MDZ_edge
 1149, 1398, 1399, 1400, 1539, 1540, 1562, 1563, 1564, 1634, 1648, 1652, 1653, 1664, 1665, 1666
 1670, 1671, 1672, 1676, 1677, 1678, 1682, 1683, 1686, 1687, 1688, 1692, 1694, 1695, 1696, 1697
 1698, 1934, 2243, 2244, 2260, 2299
*Nset, nset=MDZ_P
   2, 123, 124, 125, 126, 127, 128, 129, 130, 131, 132, 133, 134, 135, 136, 137
 138, 139, 140, 141, 142, 143, 144, 145, 146, 147, 148, 149, 150, 151, 152, 153
 154, 155, 156, 157, 158, 159, 160, 161, 162, 163, 164, 165, 166, 167, 168, 169
 170, 171, 172, 173, 174, 175, 176, 177, 178, 179, 180, 181, 182, 183, 184, 185
 186, 187, 188, 189, 190, 191, 192, 193, 194, 195, 196, 197, 198, 199, 200, 201
 202, 203, 204, 205, 206, 207, 208, 209, 210, 211, 212, 213, 214, 215, 216, 217
 218, 219, 220, 221, 222, 223, 224, 225, 226, 227, 228, 229, 230, 231
*Elset, elset=MDZ_P
  991,  992,  993,  994,  995,  996,  997,  998,  999, 1000, 1001, 1002, 1003, 1004, 1005, 1006
 1007, 1008, 1009, 1010, 1011, 1012, 1013, 1014, 1015, 1016, 1017, 1018, 1019, 1020, 1021, 1022
 1023, 1024, 1025, 1026, 1027, 1028, 1029, 1030, 1031, 1032, 1033, 1034, 1035, 1036, 1037, 1038
 1039, 1040, 1041, 1042, 1043, 1044, 1045, 1046, 1047, 1048, 1049, 1050, 1051, 1052, 1053, 1054
 1055, 1056, 1057, 1058, 1059, 1060, 1061, 1062, 1063, 1064, 1065, 1066, 1067, 1068, 1069, 1070
 1071, 1072, 1073, 1074, 1075, 1076, 1077, 1078, 1079, 1080, 1081, 1082, 1083, 1084, 1085, 1086
 1087, 1088, 1089, 1090, 1091, 1092, 1093, 1094, 1095, 1096, 1097, 1098, 1099, 1100, 1149, 1151
 1152, 1181, 1182, 1183, 1212, 1244, 1245, 1246, 1247, 1248, 1249, 1252, 1254, 1255, 1273, 1284
 1285, 1287, 1288, 1289, 1290, 1291, 1293, 1295, 1298, 1299, 1301, 1303, 1304, 1306, 1309, 1311
 1312, 1314, 1316, 1317, 1318, 1320, 1413, 1414, 1417, 1446, 1452, 1453, 1467, 1468, 1469, 1473
 1474, 1475, 1476, 1478, 1491, 1492, 1509, 1511, 1523, 1562, 1582, 1591, 1592, 1593, 1594, 1595
 1605, 1607, 1613, 1615, 1617, 1618, 1627, 1632, 1633, 1705, 1707, 1718, 1738, 1780, 1866, 1868
 2079, 2092, 2170, 2171, 2173, 2177, 2188, 2189, 2190, 2198, 2200, 2201, 2202, 2216, 2221, 2251
 2252, 2254, 2292, 2293, 2295, 2297, 2300, 2303, 2304, 2305, 2308, 2314
*Nset, nset=Base_Material
     1,     2,     4,     5,     6,     7,     8,     9,    10,    11,    12,    13,    14,    15,    16,    17
    18,    19,    20,    21,    22,    23,    24,    25,    26,    27,    28,    29,    30,    31,    32,    33
    34,    35,    36,    37,    38,    39,    40,    41,    42,    43,    44,    45,    46,    47,    48,    49
    50,    51,    52,    53,    54,    55,    56,    57,    58,    59,    60,    61,    62,    63,    64,    65
    66,    67,    68,    69,    70,    71,    72,    73,    74,    75,    76,    77,    78,    79,    80,    81
    82,    83,    84,    85,    86,    87,    88,    89,    90,    91,    92,    93,    94,    95,    96,    97
    98,    99,   100,   101,   102,   103,   104,   105,   106,   107,   108,   109,   110,   111,   112,   113
   114,   115,   116,   117,   118,   119,   120,   121,   122,   123,   124,   125,   126,   127,   128,   129
   130,   131,   132,   133,   134,   135,   136,   137,   138,   139,   140,   141,   142,   143,   144,   145
   146,   147,   148,   149,   150,   151,   152,   153,   154,   155,   156,   157,   158,   159,   160,   161
   162,   163,   164,   165,   166,   167,   168,   169,   170,   171,   172,   173,   174,   175,   176,   177
   178,   179,   180,   181,   182,   183,   184,   185,   186,   187,   188,   189,   190,   191,   192,   193
   194,   195,   196,   197,   198,   199,   200,   201,   202,   203,   204,   205,   206,   207,   208,   209
   210,   211,   212,   213,   214,   215,   216,   217,   218,   219,   220,   221,   222,   223,   224,   225
   226,   227,   228,   229,   230,   231,   250,   251,   252,   253,   254,   255,   256,   257,   258,   259
   260,   261,   262,   263,   264,   265,   266,   267,   268,   269,   270,   271,   272,   273,   274,   275
   276,   277,   278,   279,   280,   281,   282,   283,   284,   285,   286,   287,   288,   289,   290,   291
   292,   293,   294,   295,   296,   297,   298,   299,   300,   301,   302,   303,   304,   305,   306,   307
   308,   309,   310,   311,   312,   313,   314,   315,   316,   317,   318,   319,   320,   321,   322,   323
   324,   325,   326,   327,   328,   329,   330,   331,   332,   333,   334,   335,   336,   337,   338,   339
** ... 1025 like lines cut
*Elset, elset=Base_Material
     1,     2,     3,     4,     5,     6,     7,     8,     9,    10,    11,    12,    13,    14,    15,    16
    17,    18,    19,    20,    21,    22,    23,    24,    25,    26,    27,    28,    29,    30,    31,    32
    33,    34,    35,    36,    37,    38,    39,    40,    41,    42,    43,    44,    45,    46,    47,    48
    49,    50,    51,    52,    53,    54,    55,    56,    57,    58,    59,    60,    61,    62,    63,    64
    65,    66,    67,    68,    69,    70,    71,    72,    73,    74,    75,    76,    77,    78,    79,    80
    81,    82,    83,    84,    85,    86,    87,    88,    89,    90,    91,    92,    93,    94,    95,    96
    97,    98,    99,   100,   101,   102,   103,   104,   105,   106,   107,   108,   109,   110,   111,   112
   113,   114,   115,   116,   117,   118,   119,   120,   121,   122,   123,   124,   125,   126,   127,   128
   129,   130,   131,   132,   133,   134,   135,   136,   137,   138,   139,   140,   141,   142,   143,   144
   145,   146,   147,   148,   149,   150,   151,   152,   153,   154,   155,   156,   157,   158,   159,   160
   161,   162,   163,   164,   165,   166,   167,   168,   169,   170,   171,   172,   173,   174,   175,   176
   177,   178,   179,   180,   181,   182,   183,   184,   185,   186,   187,   188,   189,   190,   191,   192
   193,   194,   195,   196,   197,   198,   199,   200,   201,   202,   203,   204,   205,   206,   207,   208
   209,   210,   211,   212,   213,   214,   215,   216,   217,   218,   219,   220,   221,   222,   223,   224
   225,   226,   227,   228,   229,   230,   231,   232,   233,   234,   235,   236,   237,   238,   239,   240
   241,   242,   243,   244,   245,   246,   247,   248,   249,   250,   251,   252,   253,   254,   255,   256
   257,   258,   259,   260,   261,   262,   263,   264,   265,   266,   267,   268,   269,   270,   271,   272
   273,   274,   275,   276,   277,   278,   279,   280,   281,   282,   283,   284,   285,   286,   287,   288
   289,   290,   291,   292,   293,   294,   295,   296,   297,   298,   299,   300,   301,   302,   303,   304
   305,   306,   307,   308,   309,   310,   311,   312,   313,   314,   315,   316,   317,   318,   319,   320
** ... 1019 like lines cut
*Nset, nset=MDZ_zone
    2,    3,  123,  124,  125,  126,  127,  128,  129,  130,  131,  132,  133,  134,  135,  136
  137,  138,  139,  140,  141,  142,  143,  144,  145,  146,  147,  148,  149,  150,  151,  152
  153,  154,  155,  156,  157,  158,  159,  160,  161,  162,  163,  164,  165,  166,  167,  168
  169,  170,  171,  172,  173,  174,  175,  176,  177,  178,  179,  180,  181,  182,  183,  184
  185,  186,  187,  188,  189,  190,  191,  192,  193,  194,  195,  196,  197,  198,  199,  200
  201,  202,  203,  204,  205,  206,  207,  208,  209,  210,  211,  212,  213,  214,  215,  216
  217,  218,  219,  220,  221,  222,  223,  224,  225,  226,  227,  228,  229,  230,  231,  232
  233,  234,  235,  236,  237,  238,  239,  240,  241,  242,  243,  244,  245,  246,  247,  248
  249, 1480, 1481, 1482, 1483, 1484, 1485, 1486, 1487, 1488, 1489, 1490, 1491, 1492, 1493, 1494
 1495, 1496, 1497, 1498, 1499, 1500, 1501, 1502, 1503, 1504, 1505, 1506, 1507, 1508, 1509, 1510
 1511, 1512, 1513, 1514, 1515, 1516, 1517, 1518, 1519, 1520, 1521, 1522, 1523, 1524, 1525, 1526
 1527, 1528, 1529, 1530, 1531, 1532, 1533, 1534, 1535, 1536, 1537, 1538, 1539, 1540, 1541, 1542
 1543, 1544, 1545, 1546, 1547, 1548, 1549, 1550, 1551, 1552, 1553, 1554, 1555, 1556, 1557, 1558
 1559, 1560, 1561, 1562, 1563, 1564, 1565, 1566, 1567, 1568, 1569, 1570, 1571, 1572, 1573, 1574
 1575, 1576, 1577, 1578, 1579, 1580, 1581, 1582, 1583, 1584, 1585, 1586, 1587, 1588, 1589, 1590
 1591, 1592, 1593, 1594, 1595, 1596, 1597, 1598, 1599, 1600, 1601, 1602, 1603, 1604, 1605, 1606
 1607, 1608, 1609, 1610, 1611, 1612, 1613, 1614, 1615, 1616, 1617, 1618, 1619, 1620, 1621, 1622
 1623, 1624, 1625, 1626, 1627, 1628, 1629, 1630, 1631, 1632, 1633, 1634, 1635, 1636, 1637, 1638
 1639, 1640, 1641, 1642, 1643, 1644, 1645, 1646, 1647, 1648, 1649, 1650, 1651, 1652, 1653, 1654
 1655, 1656, 1657, 1658, 1659, 1660, 1661, 1662, 1663, 1664, 1665, 1666, 1667, 1668, 1669, 1670
** ... 64 like lines cut
*Elset, elset=MDZ_zone, generate
 1101,  2412,     1
*Elset, elset=_Outer_base_SPOS, internal, generate
  2413,  17922,      1
*Surface, type=ELEMENT, name=Outer_base
_Outer_base_SPOS, SPOS
*Elset, elset=_Inner_base_SNEG, internal, generate
  2413,  17922,      1
*Surface, type=ELEMENT, name=Inner_base
_Inner_base_SNEG, SNEG
*Elset, elset=_MDZ_Outer_SPOS, internal, generate
 1101,  2412,     1
*Surface, type=ELEMENT, name=MDZ_Outer
_MDZ_Outer_SPOS, SPOS
*Elset, elset=_MDZ_inner_SNEG, internal, generate
 1101,  2412,     1
*Surface, type=ELEMENT, name=MDZ_inner
_MDZ_inner_SNEG, SNEG
*Elset, elset=_whole_inner_SNEG, internal, generate
     1,  17922,      1
*Surface, type=ELEMENT, name=whole_inner
_whole_inner_SNEG, SNEG
*Elset, elset=_whole_outer_SPOS, internal, generate
     1,  17922,      1
*Surface, type=ELEMENT, name=whole_outer
_whole_outer_SPOS, SPOS
*Orientation, name=Ori-1, system=CYLINDRICAL
          0.,           0.,           0.,           0.,           1.,           0.
1, 0.
** Region: (Base-1: Generated From Layup)
*Elset, elset=Base-1
     1,     2,     3,     4,     5,     6,     7,     8,     9,    10,    11,    12,    13,    14,    15,    16
    17,    18,    19,    20,    21,    22,    23,    24,    25,    26,    27,    28,    29,    30,    31,    32
    33,    34,    35,    36,    37,    38,    39,    40,    41,    42,    43,    44,    45,    46,    47,    48
    49,    50,    51,    52,    53,    54,    55,    56,    57,    58,    59,    60,    61,    62,    63,    64
    65,    66,    67,    68,    69,    70,    71,    72,    73,    74,    75,    76,    77,    78,    79,    80
    81,    82,    83,    84,    85,    86,    87,    88,    89,    90,    91,    92,    93,    94,    95,    96
    97,    98,    99,   100,   101,   102,   103,   104,   105,   106,   107,   108,   109,   110,   111,   112
   113,   114,   115,   116,   117,   118,   119,   120,   121,   122,   123,   124,   125,   126,   127,   128
   129,   130,   131,   132,   133,   134,   135,   136,   137,   138,   139,   140,   141,   142,   143,   144
   145,   146,   147,   148,   149,   150,   151,   152,   153,   154,   155,   156,   157,   158,   159,   160
   161,   162,   163,   164,   165,   166,   167,   168,   169,   170,   171,   172,   173,   174,   175,   176
   177,   178,   179,   180,   181,   182,   183,   184,   185,   186,   187,   188,   189,   190,   191,   192
   193,   194,   195,   196,   197,   198,   199,   200,   201,   202,   203,   204,   205,   206,   207,   208
   209,   210,   211,   212,   213,   214,   215,   216,   217,   218,   219,   220,   221,   222,   223,   224
   225,   226,   227,   228,   229,   230,   231,   232,   233,   234,   235,   236,   237,   238,   239,   240
   241,   242,   243,   244,   245,   246,   247,   248,   249,   250,   251,   252,   253,   254,   255,   256
   257,   258,   259,   260,   261,   262,   263,   264,   265,   266,   267,   268,   269,   270,   271,   272
   273,   274,   275,   276,   277,   278,   279,   280,   281,   282,   283,   284,   285,   286,   287,   288
   289,   290,   291,   292,   293,   294,   295,   296,   297,   298,   299,   300,   301,   302,   303,   304
   305,   306,   307,   308,   309,   310,   311,   312,   313,   314,   315,   316,   317,   318,   319,   320
** ... 1019 like lines cut
** Section: Base-1
*Shell Section, elset=Base-1, composite, orientation=Ori-1, layup=Base
1.125e-05, 3, Cellulose, 5., Ply-1
0.0001275, 3, Pectin, 0., Ply-2
1.125e-05, 3, Cellulose, 5., Ply-3
*Orientation, name=Ori-2, system=CYLINDRICAL
          0.,           0.,           0.,           0.,           1.,           0.
1, 0.
** Region: (MDZ-1: Generated From Layup)
*Elset, elset=MDZ-1, generate
 1101,  2412,     1
** Section: MDZ-1
*Shell Section, elset=MDZ-1, composite, orientation=Ori-2, layup=MDZ
1.125e-05, 3, MDZ_Isotropic, 0., Ply-1
0.0001275, 3, Pectin, 0., Ply-2
1.125e-05, 3, MDZ_Isotropic, 0., Ply-3
*End Part
**  
**
** ASSEMBLY
**
*Assembly, name=Assembly
**  
*Instance, name=Cotton_1-1, part=Cotton_1
*End Instance
**  
*Elset, elset=_Surf-1_SPOS, internal, instance=Cotton_1-1, generate
  2413,  17922,      1
*Surface, type=ELEMENT, name=Surf-1
_Surf-1_SPOS, SPOS
*Elset, elset=_Surf-2_SNEG, internal, instance=Cotton_1-1, generate
  2413,  17922,      1
*Surface, type=ELEMENT, name=Surf-2
_Surf-2_SNEG, SNEG
*Elset, elset=_Surf-5_SNEG, internal, instance=Cotton_1-1, generate
  2413,  17922,      1
*Surface, type=ELEMENT, name=Surf-5
_Surf-5_SNEG, SNEG
*Elset, elset=_Surf-6_SPOS, internal, instance=Cotton_1-1, generate
  2413,  17922,      1
*Surface, type=ELEMENT, name=Surf-6
_Surf-6_SPOS, SPOS
*End Assembly
*Amplitude, name=Atm, definition=SMOOTH STEP
             0.,              0.,             0.2,              1.,              1.,              1.
*Amplitude, name=Turgor, definition=SMOOTH STEP
             0.,              0.,             0.2,              1.,              1.,              1.
** 
** MATERIALS
** 
*Material, name=Cellulose
*Density
 1.65e-09,
*Elastic, type=LAMINA
70000., 100., 0.45,  45.,  45.,  45.
*Material, name=MDZ_Isotropic
*Density
 1.09e-09,
*Elastic
400., 0.45
*Material, name=Pectin
*Density
 1e-09,
*Elastic, moduli=INSTANTANEOUS
100., 0.45
*Viscoelastic, time=PRONY
 0.33,   0., 10.2
 0.25,   0.,  1.8
** ----------------------------------------------------------------
** 
** STEP: Step-1
** 
*Step, name=Step-1, nlgeom=YES
*Static
0.1, 25., 0.00025, 25.
*
*Bulk Viscosity
0.06, 1.2
** Mass Scaling: Semi-Automatic
**               Whole Model
*Variable Mass Scaling, dt=5e-06, type=below min, frequency=50
** 
** BOUNDARY CONDITIONS
** 
** Name: BC-1 Type: Symmetry/Antisymmetry/Encastre
*Boundary
Cotton_1-1.Base, PINNED
** 
** LOADS
** 
** Name: Turgor   Type: Pressure
*Dsload, amplitude=Turgor
Cotton_1-1.whole_inner, P, 0.5
** Name: atm   Type: Pressure
*Dsload, amplitude=Atm
Cotton_1-1.whole_outer, P, 0.1
** 
** OUTPUT REQUESTS
** 
*Restart, write, number interval=1, time marks=NO
** 
** FIELD OUTPUT: F-Output-1
** 
*Output, field, variable=PRESELECT
** 
** HISTORY OUTPUT: H-Output-1
** 
*Output, history, variable=PRESELECT
*End Step
